sisyphean-power-and-light/network/results/system_losses.csv
element_name,element_type,kw_loss,kvar_loss
Transformer.sub_xfmr,Transformer,141.2113169948762,2471.2155515787085
Line.line_edge-000001,Line,3.253610034832308,8.628480434212717
Line.line_edge-000002,Line,3.253610091318382,8.628481115000323
Line.line_edge-000004,Line,0.005127512007398764,0.0015823145687245414
Line.line_edge-000008,Line,0.0013849982525280212,-0.0005085856062542007
Line.line_edge-000010,Line,5.06994582211571e-05,-0.003176958166123295
Line.line_edge-000012,Line,0.0009357412662542438,-0.003256526914355477
Line.line_edge-000014,Line,4.431488692066625e-06,-0.0046921202223651004
Line.line_edge-000015,Line,4.698622772640637e-05,-0.0010007932357001263
Line.line_edge-000016,Line,0.000268072720133659,-0.005708970077172557
Line.line_edge-000018,Line,0.0045704853103816275,-0.001861041424677751
Line.line_edge-000019,Line,0.0006246853827545139,-0.0012348050331880227
Line.line_edge-000020,Line,0.0035399691894285744,-0.006996771604213274
Line.line_edge-000022,Line,0.005656635042163544,0.0006578070043906336
Line.line_edge-000024,Line,0.002933958409474144,-0.003288852307881825
Line.line_edge-000025,Line,0.002096236768287781,3.124228460364975e-07
Line.line_edge-000026,Line,0.011912098937718838,3.169465268001659e-06
Line.line_edge-000027,Line,4.517310665611118e-06,-0.001870232074566454
Line.line_edge-000028,Line,2.5640254027747617e-05,-0.010597905584650773
Line.line_edge-000029,Line,0.0010546210146024902,-0.0016578430668110684
Line.line_edge-000030,Line,0.0059771136635404,-0.009393038802083878
Line.line_edge-000031,Line,6.567386676124442e-06,-0.0011772120544537757
Line.line_edge-000032,Line,3.7166627027545476e-05,-0.006656593823140384
Line.line_edge-000033,Line,0.001978120150575823,-0.00142920341853526
Line.line_edge-000034,Line,0.01117912749378628,-0.00807368986583321
Line.line_edge-000035,Line,0.0015224240056413692,-0.0008559875912851567
Line.line_edge-000036,Line,0.008651146192612941,-0.0048613291949186534
Line.line_edge-000037,Line,6.2326710576599e-07,-0.0014163570403062523
Line.line_edge-000038,Line,3.5289350080347505e-06,-0.008005723436956146
Line.line_edge-000040,Line,0.002105559403578809,-0.00522394791343686
Line.line_edge-000041,Line,7.3160080558096754e-06,-0.003070051255542605
Line.line_edge-000042,Line,4.157034090836557e-05,-0.017396757338844583
Line.line_edge-000043,Line,5.597436829718472e-06,-0.003128513895964645
Line.line_edge-000044,Line,3.175196885116639e-05,-0.01770062825932646
Line.line_edge-000045,Line,0.004651509614149482,-0.002282780933515465
Line.line_edge-000046,Line,0.026360165594525135,-0.012929716322611912
Line.line_edge-000047,Line,0.0020200966280535795,0.0011357011472173325
Line.line_edge-000048,Line,0.011447742297139485,0.0064386753328908525
Line.line_edge-000049,Line,0.0004463639433524804,-0.0015706158943157788
Line.line_edge-000050,Line,0.0025263932699854195,-0.008886432118611993
Line.line_edge-000051,Line,0.0001720091201891573,-0.0064190137576059635
Line.line_edge-000052,Line,0.0009750936232367768,-0.036373022725510955
Line.line_edge-000053,Line,0.004594277213988951,-0.002287320106303348
Line.line_edge-000054,Line,0.026039491410157545,-0.01295349201324243
Line.line_edge-000055,Line,0.001039252868493608,-0.0035207393676887034
Line.line_edge-000056,Line,0.005891156286795129,-0.01994724508147413
Line.line_edge-000057,Line,0.001005696351181541,-0.0017758863553044648
Line.line_edge-000058,Line,0.005699919391096046,-0.010059674162479496
Line.line_edge-000059,Line,0.010816729649238403,-0.00034313536835494675
Line.line_edge-000060,Line,0.06137222408123251,-0.0019325950681508578
Line.line_edge-000061,Line,4.314929176871374e-06,-0.002365987538991021
Line.line_edge-000062,Line,2.4488394074523966e-05,-0.01340704972140884
Line.line_edge-000063,Line,1.6420095954836623e-06,-0.008194459589591155
Line.line_edge-000064,Line,9.318227835144217e-06,-0.04636648049508032
Line.line_edge-000065,Line,0.005113545911184921,-0.0010001859531778266
Line.line_edge-000066,Line,0.028981525532037915,-0.005657426954697646
Line.line_edge-000067,Line,0.009657729160418967,0.0003276311455301766
Line.line_edge-000068,Line,0.054806816233875,0.00187603662400943
Line.line_edge-000069,Line,0.0017275268925222918,-0.0019401804291301233
Line.line_edge-000070,Line,0.009791038909574126,-0.010987888526262396
Line.line_edge-000071,Line,6.656328855206085e-05,-0.002765538863806114
Line.line_edge-000072,Line,0.0003771441406088343,-0.015649721656094927
Line.line_edge-000073,Line,0.0001409834842469302,-0.009524565501626616
Line.line_edge-000074,Line,0.0007998160010835523,-0.053969702354644884
Line.line_edge-000075,Line,1.170861870105e-05,-0.0029024676389406067
Line.line_edge-000076,Line,6.658796441388404e-05,-0.01646695537836865
Line.line_edge-000077,Line,8.233167148876453e-06,-0.010229773941005358
Line.line_edge-000078,Line,4.6751545972727816e-05,-0.05789951856093458
Line.line_edge-000079,Line,0.0014540385514573008,-0.003702928579725711
Line.line_edge-000080,Line,0.008241485894151235,-0.020975724952400576
Line.line_edge-000081,Line,0.010752462445554556,0.0014140375256101833
Line.line_edge-000082,Line,0.06088864758316777,0.008027678703736456
Line.line_edge-000083,Line,1.8043918813418713e-05,-0.00325861627047675
Line.line_edge-000084,Line,0.0001024824183855344,-0.01846460449674305
Line.line_edge-000085,Line,0.0072685042294469895,-0.00024082796330549173
Line.line_edge-000086,Line,0.04123701533969142,-0.0013474582221133459
Line.line_edge-000087,Line,0.008215117076347018,-0.0022960390575468602
Line.line_edge-000088,Line,0.04659857480628104,-0.01299951883330441
Line.line_edge-000089,Line,0.0002880652367530274,-0.003415727800968398
Line.line_edge-000090,Line,0.0016336516139708692,-0.01935127006282346
Line.line_edge-000091,Line,5.8780800577569185e-06,-0.006951056668230041
Line.line_edge-000092,Line,3.3462718102929035e-05,-0.03938872715069158
Line.line_edge-000093,Line,75.59515539819236,200.41567142223056
Line.line_edge-000095,Line,2.6626447896560786e-06,-0.0017378499621926002
Line.line_edge-000097,Line,1.5758454399979475e-06,-0.0022501977429110853
Line.line_edge-000099,Line,0.0019547979175840737,-1.0122349391167518e-05
Line.line_edge-000101,Line,1.830939620958816e-05,-0.0014452361526193726
Line.line_edge-000102,Line,2.7392824114514242e-05,-0.0013157131097883484
Line.line_edge-000103,Line,0.00015425068728993878,-0.007408433586511256
Line.line_edge-000105,Line,0.00010243978705438752,-0.0047697230476646075
Line.line_edge-000107,Line,0.0013140720644212959,-0.00523329724102647
Line.line_edge-000109,Line,0.0020195001377955094,-0.005061697285390376
Line.line_edge-000110,Line,0.00011694113179165444,-0.001114489961766571
Line.line_edge-000111,Line,0.0006661976797963447,-0.006348397294003817
Line.line_edge-000112,Line,2.815358140773494e-05,-0.0014756740114984525
Line.line_edge-000113,Line,0.00015959925951620262,-0.00836201863805317
Line.line_edge-000114,Line,4.238336812754984e-06,-0.0028214976506305235
Line.line_edge-000115,Line,2.4031948921174087e-05,-0.015988425714653146
Line.line_edge-000116,Line,0.00010542057335759925,-0.0016608099587169702
Line.line_edge-000117,Line,0.0005975281631367247,-0.009410944652490916
Line.line_edge-000118,Line,7.20648705357918e-05,-0.0018601604668210241
Line.line_edge-000119,Line,0.00040851105053389404,-0.010540603393631335
Line.line_edge-000120,Line,6.516517705676961e-06,-0.0010597316118891057
Line.line_edge-000121,Line,3.695994521604007e-05,-0.006005028453011391
Line.line_edge-000122,Line,0.0012129483458556934,-0.0005819091905668757
Line.line_edge-000123,Line,0.006888900390942581,-0.0033032675484009817
Line.line_edge-000124,Line,9.214341089318623e-07,-0.0011724561025157527
Line.line_edge-000125,Line,5.236560074081353e-06,-0.006657631891824166
Line.line_edge-000126,Line,4.795559497610979e-05,-0.004483758838255026
Line.line_edge-000127,Line,0.0002724288451038931,-0.025454981698144977
Line.line_edge-000128,Line,7.827947391401385e-05,-0.004541255747640281
Line.line_edge-000129,Line,0.0004436713874202681,-0.02573329285146286
Line.line_edge-000130,Line,5.634180378925979e-05,-0.0028120525320965194
Line.line_edge-000131,Line,0.00031950204066147776,-0.015934474317288592
Line.line_edge-000132,Line,6.494246045804175e-06,-0.0014881629525395966
Line.line_edge-000133,Line,3.6922493359270446e-05,-0.008452376338318572
Line.line_edge-000134,Line,0.00024574654421849116,-0.0014987803781359617
Line.line_edge-000135,Line,0.0013898610858777828,-0.008473561900125787
Line.line_edge-000136,Line,6.721237940382707e-06,-0.0016436123979704008
Line.line_edge-000137,Line,3.815197877679566e-05,-0.00931357455946852
Line.line_edge-000138,Line,0.00022292317844113674,-0.0031050596200298186
Line.line_edge-000139,Line,0.0012653118878261011,-0.017618341546089142
Line.line_edge-000140,Line,0.0004410130085689161,-0.00169408599982944
Line.line_edge-000141,Line,0.0025030095487236395,-0.009610392242768285
Line.line_edge-000142,Line,7.009486462038694e-06,-0.0019030545619390295
Line.line_edge-000143,Line,3.973031975669983e-05,-0.01076404629578701
Line.line_edge-000144,Line,5.173309875534216e-06,-0.006928309330761056
Line.line_edge-000145,Line,2.9359191300387662e-05,-0.03926019375449419
Line.line_edge-000146,Line,3.059446930274135e-05,-0.002045400240510389
Line.line_edge-000147,Line,0.000173731442715507,-0.011603678125911301
Line.line_edge-000148,Line,7.992880124195079e-06,-0.0042064573416460025
Line.line_edge-000149,Line,4.544787842986064e-05,-0.023836264235861288
Line.line_edge-000150,Line,0.0051853237656665765,-0.0024968151956066935
Line.line_edge-000151,Line,0.029390132330312548,-0.014138700988111048
Line.line_edge-000152,Line,1.1281737869765384e-05,-0.007971490719695563
Line.line_edge-000153,Line,6.405680796545695e-05,-0.04517130251421249
Line.line_edge-000154,Line,0.00034671830282721137,-0.004449269731081928
Line.line_edge-000155,Line,0.0019662046968710835,-0.025209979480263482
Line.line_edge-000156,Line,7.385283933490427e-05,-0.0024396934297046756
Line.line_edge-000157,Line,0.0004184102866729518,-0.013810126619309358
Line.line_edge-000158,Line,0.0004256154325303214,-0.0023475232423261333
Line.line_edge-000159,Line,0.0024126315463508944,-0.0132995957260855
Line.line_edge-000160,Line,0.027031648897289415,0.0056008103898784614
Line.line_edge-000161,Line,0.153187778474472,0.031767396510156684
Line.line_edge-000162,Line,0.015589404800875143,0.0028434610027870412
Line.line_edge-000163,Line,0.08835204236179893,0.016133812938354357
Line.line_edge-000164,Line,0.031485521933384004,0.006798800887037942
Line.line_edge-000165,Line,0.17842791423518792,0.03856127055815887
Line.line_edge-000166,Line,0.002869910869623709,-0.001997799590812065
Line.line_edge-000167,Line,0.016279696473688092,-0.011319496049458394
Line.line_edge-000168,Line,0.011321891021909274,-0.0015072833892903965
Line.line_edge-000169,Line,0.06417181965644558,-0.00851979155030443
Line.line_edge-000170,Line,0.0003283414342176404,-0.00985387924715907
Line.line_edge-000171,Line,0.0018612092838417875,-0.05583538976697773
Line.line_edge-000172,Line,0.0003631916209269548,-0.002582726692462529
Line.line_edge-000173,Line,0.0020569942363363224,-0.014621007532901785
Line.line_edge-000174,Line,0.0010678542658225352,-0.005720655212508014
Line.line_edge-000175,Line,0.0060618260972339615,-0.032445219612430305
Line.line_edge-000176,Line,0.017904167885494458,0.002949228477370941
Line.line_edge-000177,Line,0.1013982981567013,0.016729466340076743
Line.line_edge-000178,Line,0.00013793766286107712,-0.003238734611034488
Line.line_edge-000179,Line,0.0007822095534775144,-0.018350476048361996
Line.line_edge-000180,Line,7.484349399194734e-05,-0.006662344229711287
Line.line_edge-000181,Line,0.00042505761617553725,-0.03775125817347487
Line.line_edge-000182,Line,0.004807966490816094,-0.004537871152831851
Line.line_edge-000183,Line,0.02724811685914558,-0.025698735274419737
Line.line_edge-000184,Line,55.121304076823456,146.12199810309139
Line.line_edge-000188,Line,5.197602054347063e-05,-0.0021990494854952224
Line.line_edge-000190,Line,1.1968109340418339e-06,-0.002038045153644614
Line.line_edge-000192,Line,1.263821600969095e-05,-0.0013133481607264911
Line.line_edge-000194,Line,1.8949910725267144e-06,-0.003791930601127931
Line.line_edge-000196,Line,0.0027382024817488855,-0.001411803921126193
Line.line_edge-000197,Line,6.449327031841398e-05,-0.001607194831712119
Line.line_edge-000198,Line,0.0003654791667247709,-0.009107342687276159
Line.line_edge-000199,Line,0.0014692607813849463,-6.936677104386035e-05
Line.line_edge-000200,Line,0.008325984162031091,-0.00039246443518277374
Line.line_edge-000201,Line,0.00032808853963856423,-0.001969448919648822
Line.line_edge-000202,Line,0.0018662939021119504,-0.01120199337233849
Line.line_edge-000204,Line,0.002285708579205675,-0.00330744113300716
Line.line_edge-000205,Line,0.0026555829617063865,3.359769482267438e-05
Line.line_edge-000206,Line,0.015048739253164968,0.00019190204434562475
Line.line_edge-000207,Line,0.0017857282354234484,0.0017057077403151196
Line.line_edge-000208,Line,0.010119308615627234,0.009666714856808539
Line.line_edge-000209,Line,0.0003655433660723837,-0.0016199684304449749
Line.line_edge-000210,Line,0.002064073930895798,-0.00914500694245101
Line.line_edge-000211,Line,3.997554819369503e-06,-0.003476726423971189
Line.line_edge-000212,Line,2.2679930112838556e-05,-0.019701376812618902
Line.line_edge-000213,Line,8.082349289907143e-06,-0.001093870432417134
Line.line_edge-000214,Line,4.573320237068401e-05,-0.006185113931034493
Line.line_edge-000215,Line,3.3933130183868346e-05,-0.0011444508102113104
Line.line_edge-000216,Line,0.00019237699671430163,-0.006484910331362243
Line.line_edge-000217,Line,0.001593432327272608,8.305113749040238e-05
Line.line_edge-000218,Line,0.00902999283698463,0.00047270929002197847
Line.line_edge-000219,Line,0.00012881041001002564,-0.004521694204231002
Line.line_edge-000220,Line,0.0007287933788297462,-0.025575734949269107
Line.line_edge-000221,Line,6.368812506718529e-05,-0.004855941061116218
Line.line_edge-000222,Line,0.0003619352252111922,-0.027583610495052452
Line.line_edge-000223,Line,8.648458768220735e-06,-0.001435285629396958
Line.line_edge-000224,Line,4.9034684048820055e-05,-0.008133130557790537
Line.line_edge-000225,Line,0.00022643669251939214,-0.0027355685762224164
Line.line_edge-000226,Line,0.0012834302013333314,-0.015500437198440192
...
Transformer.xfmr-000001,Transformer,0.37003539984393863,2.3128724244421175
Transformer.xfmr-000002,Transformer,0.09228656734379183,0.5768416070500553
Transformer.xfmr-000003,Transformer,0.1322199913169752,0.8264254234995697
Transformer.xfmr-000004,Transformer,0.026069588559487784,0.16294627099548098
Transformer.xfmr-000005,Transformer,0.06473729861354878,0.40465874028128385
Transformer.xfmr-000006,Transformer,0.012889127521597403,0.08056157935999977
Transformer.xfmr-000007,Transformer,0.054945993445078785,0.3434351379599548
Transformer.xfmr-000008,Transformer,0.12478324042261374,0.7799457342507794
Transformer.xfmr-000009,Transformer,0.2012999831563502,1.2582764353776583
Transformer.xfmr-000010,Transformer,0.2792343325486727,1.7453659271538053
Transformer.xfmr-000011,Transformer,0.08644925867689744,0.5403584305217318
Transformer.xfmr-000012,Transformer,0.20853066338553616,1.3033921620434266
Transformer.xfmr-000013,Transformer,0.009962679106619816,0.06227128231479355
Transformer.xfmr-000014,Transformer,0.12834153788226832,0.802185081978625
Transformer.xfmr-000015,Transformer,0.008318936422496336,0.05199789393108586
Transformer.xfmr-000016,Transformer,0.14907909980953263,0.9318452280323254
Transformer.xfmr-000017,Transformer,0.10248873211959289,0.6406050861675794
Transformer.xfmr-000018,Transformer,0.0037342938971778494,0.02334236882037635
Transformer.xfmr-000019,Transformer,0.12901092285304186,0.806368746971586
Transformer.xfmr-000020,Transformer,0.009849010083548819,0.06156085109249284
Transformer.xfmr-000021,Transformer,0.01087601402620021,0.06797962364882301
Transformer.xfmr-000022,Transformer,0.2545714667419234,1.5912229856947233
Transformer.xfmr-000023,Transformer,0.2871460357566248,1.7947632973229557
Transformer.xfmr-000024,Transformer,0.08130086969243712,0.5081606520380919
Transformer.xfmr-000025,Transformer,0.05568747365120362,0.3480693852908662
Transformer.xfmr-000026,Transformer,0.14392856772692175,0.8996543541024257
Transformer.xfmr-000027,Transformer,0.09465101574988512,0.5916193828360556
Transformer.xfmr-000028,Transformer,0.06107830167589418,0.38178999680430753
Transformer.xfmr-000029,Transformer,0.20675519340651227,1.2923712430778178
Transformer.xfmr-000030,Transformer,0.010292446989014934,0.06433233090963586
Transformer.xfmr-000031,Transformer,0.007219342826831962,0.0451239168178231
Transformer.xfmr-000032,Transformer,0.2862829865699896,1.7893691902398168
Transformer.xfmr-000033,Transformer,0.16454528974279675,1.0285087157448178
Transformer.xfmr-000034,Transformer,0.08636084608206147,0.5398058251987968
Transformer.xfmr-000035,Transformer,0.014210647291050918,0.08882411254150134
Transformer.xfmr-000036,Transformer,0.02148196851657849,0.1342774525634509
Transformer.xfmr-000037,Transformer,0.006036739282986673,0.03773416706920705
Transformer.xfmr-000038,Transformer,0.008573536646464163,0.0535891447380568
Transformer.xfmr-000039,Transformer,0.14904149580199738,0.9316102047638051
Transformer.xfmr-000040,Transformer,0.22554510691981705,1.4097574451661312
Transformer.xfmr-000041,Transformer,0.008279649300238362,0.051752349274094965
Transformer.xfmr-000042,Transformer,0.19354571905148624,1.2097361924598662
Transformer.xfmr-000043,Transformer,0.23153839983478247,1.4472155604909567
Transformer.xfmr-000044,Transformer,0.0244333093416808,0.15272332269465824
Transformer.xfmr-000045,Transformer,0.011636183322139004,0.07273068036673067
Transformer.xfmr-000046,Transformer,0.010958445751037289,0.06849468395674399
Transformer.xfmr-000047,Transformer,0.005066766329716984,0.031670226188526725
Transformer.xfmr-000048,Transformer,0.15305785324065074,0.9567094004540668
Transformer.xfmr-000049,Transformer,0.016468409237159903,0.10293489111514419
Transformer.xfmr-000050,Transformer,0.029470221573486922,0.18421092939432582
Transformer.xfmr-000051,Transformer,0.041944895422155244,0.26218498279139657
Transformer.xfmr-000052,Transformer,0.05643003965437674,0.35273685357101203
Transformer.xfmr-000053,Transformer,0.1203391012315551,0.7521683438140936
Transformer.xfmr-000054,Transformer,0.10880652177883167,0.6800897484344823
Transformer.xfmr-000055,Transformer,0.03370317831838474,0.2106595294439285
Transformer.xfmr-000056,Transformer,0.010751642144833568,0.0672021617470939
Transformer.xfmr-000057,Transformer,0.05425212504644151,0.3391051374240315
Transformer.xfmr-000058,Transformer,0.044961876641114944,0.28103373704392287
Transformer.xfmr-000059,Transformer,0.00589689394468769,0.03685999604181848
Transformer.xfmr-000060,Transformer,0.0955019667961751,0.5969607528676552
Transformer.xfmr-000061,Transformer,0.006454946008537718,0.04034634609773423
Transformer.xfmr-000062,Transformer,0.02057363518646707,0.12859622779571372
Transformer.xfmr-000063,Transformer,0.059762829663817685,0.37354702983977406
Transformer.xfmr-000064,Transformer,0.03539076794832181,0.2212069607868075
Transformer.xfmr-000065,Transformer,0.009521125410125933,0.05951143450601035
Transformer.xfmr-000066,Transformer,0.04435493655012215,0.27724035934715086
Transformer.xfmr-000067,Transformer,0.005894859918634211,0.03684580911880528
Transformer.xfmr-000068,Transformer,0.07798179274604262,0.487435254854734
Transformer.xfmr-000069,Transformer,0.03471683424553885,0.21700960848034628
Transformer.xfmr-000070,Transformer,0.005313787685849092,0.033214108972654005
Transformer.xfmr-000071,Transformer,0.010650188985438945,0.06657102733404759
Transformer.xfmr-000072,Transformer,0.012927578591010389,0.0808047065224755
Transformer.xfmr-000073,Transformer,0.011397873160687595,0.07124110430171436
Transformer.xfmr-000074,Transformer,0.14454383497445086,0.9034966939774022
Transformer.xfmr-000075,Transformer,0.008961057002303277,0.05601395660539879
Transformer.xfmr-000076,Transformer,0.04563134043336322,0.28522524745389727
Transformer.xfmr-000077,Transformer,0.01732396696125761,0.10828580805938327
Transformer.xfmr-000078,Transformer,0.04871637356186329,0.3044993284490802
Transformer.xfmr-000079,Transformer,0.29504736678602056,1.8441922521751768
Transformer.xfmr-000080,Transformer,0.35864414607721845,2.2416722300365874
Transformer.xfmr-000081,Transformer,0.3240857117434498,2.0256817900702444
Transformer.xfmr-000082,Transformer,0.08610520119979628,0.538206485544184
Transformer.xfmr-000083,Transformer,0.24440048416677745,1.5276004563825918
Transformer.xfmr-000084,Transformer,0.06751821983972696,0.42203794557751645
Transformer.xfmr-000085,Transformer,0.057450754523364594,0.3591163121829923
Transformer.xfmr-000086,Transformer,0.06205794630056334,0.38791123279128803
Transformer.xfmr-000087,Transformer,0.34090057356937903,2.1307748835976743
Transformer.xfmr-000088,Transformer,0.02720115380745119,0.17002188719352263
Transformer.xfmr-000089,Transformer,0.0200298603311594,0.1252013207517316
Transformer.xfmr-000090,Transformer,0.2817408326735313,1.761026837899328
Transformer.xfmr-000091,Transformer,0.19299180974077898,1.2063419555428991
Transformer.xfmr-000092,Transformer,0.04861272695389198,0.30385097153683
Transformer.xfmr-000093,Transformer,0.00779473245013196,0.048721367486866486
Transformer.xfmr-000094,Transformer,0.012207621681378442,0.07630478667727425
Transformer.xfmr-000095,Transformer,0.00442062464734181,0.02763176547771718
Transformer.xfmr-000096,Transformer,0.10229018721349711,0.6393613864316466
Transformer.xfmr-000097,Transformer,0.0800046223998288,0.5000766617235004
Transformer.xfmr-000098,Transformer,0.11958627424313453,0.7475095369618903
Transformer.xfmr-000099,Transformer,0.092908356673448,0.5807488030272234
Transformer.xfmr-000100,Transformer,0.07999531026232216,0.49999922494590826
Transformer.xfmr-000101,Transformer,0.19193841871928452,1.1996864427188703
Transformer.xfmr-000102,Transformer,0.3248280218299915,2.0303179452271363
Transformer.xfmr-000103,Transformer,0.07267241590830963,0.45425038155463154
Transformer.xfmr-000104,Transformer,0.012049907280716525,0.07531620169982785
Transformer.xfmr-000105,Transformer,0.01039648449989545,0.06498231231655405
Transformer.xfmr-000106,Transformer,0.016485914626216982,0.10304410799055859
Transformer.xfmr-000107,Transformer,0.2603691108063504,1.6274498845934977
Transformer.xfmr-000108,Transformer,0.043805047112186,0.27381015776197726
Transformer.xfmr-000109,Transformer,0.027208584880932904,0.1700751303379693
Transformer.xfmr-000110,Transformer,0.01912141654480729,0.11951599041972986
Transformer.xfmr-000111,Transformer,0.08741893089286168,0.5464160684645977
Transformer.xfmr-000112,Transformer,0.020091688466291998,0.12558736459189412
Transformer.xfmr-000113,Transformer,0.11331146695715143,0.7082681861170659
Transformer.xfmr-000114,Transformer,0.2928664352444466,1.8305580528798746
Transformer.xfmr-000115,Transformer,0.03960908558481788,0.24758540333128803
Transformer.xfmr-000116,Transformer,0.011052336121184907,0.069081383712371
Transformer.xfmr-000117,Transformer,0.051161756234259885,0.3197823974147059
Transformer.xfmr-000118,Transformer,0.01652690700299081,0.10330031067258393
Transformer.xfmr-000119,Transformer,0.17041553255297914,1.0651921892831597
Transformer.xfmr-000120,Transformer,0.15270508297414198,0.9544781734410172
Transformer.xfmr-000121,Transformer,0.005882738254204924,0.03676997227839763
Transformer.xfmr-000122,Transformer,0.20724771210645848,1.2953932521727256
Transformer.xfmr-000123,Transformer,0.08933929567708401,0.5584420920855664
Transformer.xfmr-000124,Transformer,0.012619714650975765,0.07888036643536543
Transformer.xfmr-000125,Transformer,0.012775631598614381,0.07985843640888743
Transformer.xfmr-000126,Transformer,0.09060177529404609,0.5663088170231313
Transformer.xfmr-000127,Transformer,0.006957042040236047,0.0434858040184173
Transformer.xfmr-000128,Transformer,0.028697609702405317,0.17938153137167637
Transformer.xfmr-000129,Transformer,0.003651127958744382,0.022822413133176952
Transformer.xfmr-000130,Transformer,0.029507726313680906,0.18443757659668655
Transformer.xfmr-000131,Transformer,0.009811690549443483,0.06133022197721948
Transformer.xfmr-000132,Transformer,0.019143706766973082,0.1196553032157533
Transformer.xfmr-000133,Transformer,0.021903930420274265,0.13691028031518862
Transformer.xfmr-000134,Transformer,0.011797262931186197,0.0737400449411657
Transformer.xfmr-000135,Transformer,0.014795125991414353,0.09247668184535474
Transformer.xfmr-000136,Transformer,0.16215607180437655,1.0136154371823287
Transformer.xfmr-000137,Transformer,0.12963586909697916,0.8102707735136937
Transformer.xfmr-000138,Transformer,0.026118542398078717,0.1632548648700572
Transformer.xfmr-000139,Transformer,0.02516313124237331,0.1572800397729161
Transformer.xfmr-000140,Transformer,0.03473859252938746,0.21714419342623023
Transformer.xfmr-000141,Transformer,0.02602453742018952,0.16266733342282852
Transformer.xfmr-000142,Transformer,0.01973977382542489,0.12338406708144112
Transformer.xfmr-000143,Transformer,0.1276406306696226,0.7978005356177728
Transformer.xfmr-000144,Transformer,0.14154382431118576,0.8847187473308149
Transformer.xfmr-000145,Transformer,0.17254705366066628,1.0785121501728354
Transformer.xfmr-000146,Transformer,0.02118664759945841,0.13243053283044445
Transformer.xfmr-000147,Transformer,0.03392598343984173,0.21205836839360745
Transformer.xfmr-000148,Transformer,0.18006946539319324,1.1255271647769514
Transformer.xfmr-000149,Transformer,0.12543544175174612,0.7840413865139125
Transformer.xfmr-000150,Transformer,0.0032324588739111276,0.020205667756102285
Transformer.xfmr-000151,Transformer,0.05255803696245311,0.32850866252552985
Transformer.xfmr-000152,Transformer,0.24615535153690143,1.5385637567670238
Transformer.xfmr-000153,Transformer,0.18506071160828289,1.156769231761169
Transformer.xfmr-000154,Transformer,0.18558812873358693,1.1600188105829583
Transformer.xfmr-000155,Transformer,0.008934499399681044,0.0558476184321139
Transformer.xfmr-000156,Transformer,0.023145034258752275,0.14466693748639228
Transformer.xfmr-000157,Transformer,0.10749287186218134,0.671900363330029
Transformer.xfmr-000158,Transformer,0.30496385512451524,1.9061635803697137
Transformer.xfmr-000159,Transformer,0.32321508537381305,2.0202338328082186
Transformer.xfmr-000160,Transformer,0.02509234506638313,0.1568376244255719
Transformer.xfmr-000161,Transformer,0.0893416247624773,0.5584551130649579
Transformer.xfmr-000162,Transformer,0.0563733678348799,0.3523544753528604
Transformer.xfmr-000163,Transformer,0.06811693954937437,0.425777578967256
Transformer.xfmr-000164,Transformer,0.007984575651495561,0.0499105966929028
Transformer.xfmr-000165,Transformer,0.005567122408720934,0.034797309135786915
Transformer.xfmr-000166,Transformer,0.004691316063702743,0.02932352154243563
Transformer.xfmr-000167,Transformer,0.3507050716026133,2.1920460175305196
Transformer.xfmr-000168,Transformer,0.3447127896647726,2.1545942544648935
Transformer.xfmr-000169,Transformer,0.04457109603707795,0.2785973112397469
Transformer.xfmr-000170,Transformer,0.0077287077235214385,0.04830721327545496
Transformer.xfmr-000171,Transformer,0.0724882184374037,0.45309805684972526
Transformer.xfmr-000172,Transformer,0.04035106722646742,0.2522151181460649
Transformer.xfmr-000173,Transformer,0.020876611578995834,0.13049280832336946
Transformer.xfmr-000174,Transformer,0.1904399583909908,1.1903193834472403
Transformer.xfmr-000175,Transformer,0.028530169057226884,0.1783345415053236
Transformer.xfmr-000176,Transformer,0.016630396665871558,0.10395397383417822
Transformer.xfmr-000177,Transformer,0.08344017448928935,0.5215477438470898
Transformer.xfmr-000178,Transformer,0.011937790989895348,0.07461537802315456
Transformer.xfmr-000179,Transformer,0.018338504950049354,0.11462263211028881
Transformer.xfmr-000180,Transformer,0.024404489397426003,0.15253852893088835
Transformer.xfmr-000181,Transformer,0.007210500203651464,0.04506836929265989
Transformer.xfmr-000182,Transformer,0.010851226434650016,0.0678242796857121
Transformer.xfmr-000183,Transformer,0.08830028946907623,0.5519226805368816
Transformer.xfmr-000184,Transformer,0.004213998165253088,0.026340237578840516
Transformer.xfmr-000185,Transformer,0.049286263641641195,0.3080597289261059
Transformer.xfmr-000186,Transformer,0.005988341370323723,0.03742987893326801
Transformer.xfmr-000187,Transformer,0.03450121957749434,0.2156532342917253
Transformer.xfmr-000188,Transformer,0.1723640262632398,1.0774126849836647
Transformer.xfmr-000189,Transformer,0.02414057131304071,0.150888862293747
Transformer.xfmr-000190,Transformer,0.10327158243833401,0.6455161166883463
Transformer.xfmr-000191,Transformer,0.00747824067458987,0.04674174673111179
Transformer.xfmr-000192,Transformer,0.06747753062501215,0.42178048311823296
Transformer.xfmr-000193,Transformer,0.0035618643271338895,0.02226440290708689
Transformer.xfmr-000194,Transformer,0.025831342865665647,0.1614561806804909
Transformer.xfmr-000195,Transformer,0.09200414981265931,0.5750946856290884
Transformer.xfmr-000196,Transformer,0.18907389997897553,1.1818492614821152
Transformer.xfmr-000197,Transformer,0.05680897652976637,0.3550835537067333
Transformer.xfmr-000198,Transformer,0.007013704159674034,0.04383839424629753
Transformer.xfmr-000199,Transformer,0.014453405103457953,0.09034409409645514
Transformer.xfmr-000200,Transformer,0.004335951736397192,0.0271024472369387
...
Capacitor.cap_0001,Capacitor,7.275957614183426e-15,-310.4834147443281
Capacitor.cap_0002,Capacitor,7.16227077646181e-15,-308.6256885216635
Capacitor.cap_0003,Capacitor,-7.16227077646181e-15,-307.0917080581221
Capacitor.cap_0004,Capacitor,-1.4551915228366852e-14,-611.5815865491128
Capacitor.cap_0005,Capacitor,1.4551915228366852e-14,-609.4379740833293
